Version 4
SHEET 1 3264 948
WIRE 240 -240 128 -240
WIRE 416 -240 320 -240
WIRE 16 -144 -16 -144
WIRE 128 -144 128 -240
WIRE 128 -144 96 -144
WIRE 160 -144 128 -144
WIRE 320 -144 240 -144
WIRE 336 -144 320 -144
WIRE 416 -144 416 -240
WIRE 416 -144 400 -144
WIRE 512 -144 416 -144
WIRE 640 -144 592 -144
WIRE 320 -112 320 -144
WIRE 128 -80 128 -144
WIRE -16 -48 -16 -144
WIRE 320 16 320 -32
WIRE 128 32 128 -16
WIRE 320 48 320 16
WIRE 416 48 416 -144
WIRE 528 96 528 80
WIRE 528 208 528 176
WIRE 320 240 320 208
WIRE 384 240 384 208
WIRE 320 304 320 240
WIRE 0 416 -16 416
WIRE 112 416 80 416
WIRE 144 416 112 416
WIRE 320 416 320 384
WIRE 320 416 224 416
WIRE 336 416 320 416
WIRE 416 416 416 208
WIRE 416 416 400 416
WIRE 512 416 416 416
WIRE 640 416 640 -144
WIRE 640 416 592 416
WIRE -16 512 -16 416
WIRE 112 512 112 416
WIRE 224 512 112 512
WIRE 416 512 416 416
WIRE 416 512 304 512
WIRE 112 560 112 512
WIRE 112 656 112 624
FLAG 528 208 0
FLAG 528 80 Vcc
FLAG 128 32 0
FLAG 112 656 0
FLAG 384 48 vcc
FLAG 352 208 vcc
FLAG 320 240 in2
FLAG 320 416 fb2
FLAG 320 -144 fb1
FLAG 320 16 in1
FLAG -16 -48 0
FLAG -16 512 0
FLAG 384 240 0
SYMBOL voltage 528 80 R0
WINDOW 123 0 0 Left 2
WINDOW 39 0 0 Left 2
SYMATTR InstName V1
SYMATTR Value 12
SYMBOL res 112 -160 R90
WINDOW 0 0 56 VBottom 2
WINDOW 3 32 56 VTop 2
SYMATTR InstName R15
SYMATTR Value 367
SYMBOL cap 112 -80 R0
SYMATTR InstName C7
SYMATTR Value 1.5n
SYMBOL res 256 -160 R90
WINDOW 0 0 56 VBottom 2
WINDOW 3 32 56 VTop 2
SYMATTR InstName R16
SYMATTR Value 332
SYMBOL res 336 -256 R90
WINDOW 0 0 56 VBottom 2
WINDOW 3 32 56 VTop 2
SYMATTR InstName R17
SYMATTR Value 220
SYMBOL cap 400 -160 R90
WINDOW 0 0 32 VBottom 2
WINDOW 3 32 32 VTop 2
SYMATTR InstName C8
SYMATTR Value 100p
SYMBOL cap 96 560 R0
SYMATTR InstName C12
SYMATTR Value 1.5n
SYMBOL res 240 400 R90
WINDOW 0 0 56 VBottom 2
WINDOW 3 32 56 VTop 2
SYMATTR InstName R18
SYMATTR Value 332
SYMBOL cap 400 400 R90
WINDOW 0 0 32 VBottom 2
WINDOW 3 32 32 VTop 2
SYMATTR InstName C13
SYMATTR Value 100p
SYMBOL res 320 496 R90
WINDOW 0 0 56 VBottom 2
WINDOW 3 32 56 VTop 2
SYMATTR InstName R19
SYMATTR Value 220
SYMBOL res 96 400 R90
WINDOW 0 0 56 VBottom 2
WINDOW 3 32 56 VTop 2
SYMATTR InstName R20
SYMATTR Value 367
SYMBOL res 608 -160 R90
WINDOW 0 0 56 VBottom 2
WINDOW 3 32 56 VTop 2
SYMATTR InstName R13
SYMATTR Value 1k
SYMBOL res 608 432 M270
WINDOW 0 32 56 VTop 2
WINDOW 3 0 56 VBottom 2
SYMATTR InstName R22
SYMATTR Value 1k
SYMBOL AutoGenerated\\OPA1632 368 128 M90
SYMATTR InstName U4
SYMBOL voltage 320 -128 M0
WINDOW 123 24 124 Left 2
WINDOW 39 0 0 Left 2
SYMATTR Value2 AC 1
SYMATTR InstName V5
SYMATTR Value 0
SYMBOL voltage 320 400 R180
WINDOW 123 24 124 Left 2
WINDOW 39 0 0 Left 2
SYMATTR Value2 AC -1
SYMATTR InstName V6
SYMATTR Value 0
TEXT 280 624 Left 2 !.ac dec 100 1 200Meg
