Version 4
SHEET 1 3264 948
WIRE 448 -32 288 -32
WIRE 752 -32 640 -32
WIRE 928 -32 832 -32
WIRE 1216 -32 1104 -32
WIRE 1392 -32 1296 -32
WIRE 288 48 288 -32
WIRE 320 48 288 48
WIRE 448 64 448 -32
WIRE 448 64 384 64
WIRE 512 64 448 64
WIRE 640 64 640 -32
WIRE 640 64 592 64
WIRE 704 64 640 64
WIRE 832 64 784 64
WIRE 848 64 832 64
WIRE 928 64 928 -32
WIRE 928 64 912 64
WIRE 960 64 928 64
WIRE 992 64 960 64
WIRE 1104 64 1104 -32
WIRE 1104 64 1072 64
WIRE 1168 64 1104 64
WIRE 1296 64 1248 64
WIRE 1312 64 1296 64
WIRE 1392 64 1392 -32
WIRE 1392 64 1376 64
WIRE 1488 64 1392 64
WIRE 1616 64 1568 64
WIRE 48 80 -96 80
WIRE 320 80 48 80
WIRE 640 80 640 64
WIRE 1104 80 1104 64
WIRE 1296 80 1296 64
WIRE 48 112 48 80
WIRE 640 160 640 144
WIRE 1104 160 1104 144
WIRE 832 176 832 64
WIRE 928 176 928 64
WIRE 1296 176 1296 160
WIRE 1392 176 1392 64
WIRE -96 240 -96 80
WIRE 48 272 48 192
WIRE 48 272 0 272
WIRE 0 288 0 272
WIRE 928 336 928 320
WIRE 1296 336 1296 320
WIRE 1392 336 1392 320
WIRE 48 352 48 272
WIRE 448 352 288 352
WIRE 1296 352 1296 336
WIRE 288 432 288 352
WIRE 320 432 288 432
WIRE 448 448 448 352
WIRE 448 448 384 448
WIRE 496 448 448 448
WIRE 624 448 576 448
WIRE 656 448 624 448
WIRE 832 448 832 336
WIRE 832 448 736 448
WIRE 848 448 832 448
WIRE 928 448 928 336
WIRE 928 448 912 448
WIRE 960 448 928 448
WIRE 976 448 960 448
WIRE 1088 448 1056 448
WIRE 1120 448 1088 448
WIRE 1296 448 1296 432
WIRE 1296 448 1200 448
WIRE 1312 448 1296 448
WIRE 1392 448 1392 336
WIRE 1392 448 1376 448
WIRE 1488 448 1392 448
WIRE 1616 448 1616 64
WIRE 1616 448 1568 448
WIRE -96 464 -96 320
WIRE 48 464 48 432
WIRE 48 464 -96 464
WIRE 320 464 48 464
WIRE 624 544 624 448
WIRE 736 544 624 544
WIRE 928 544 928 448
WIRE 928 544 816 544
WIRE 1088 544 1088 448
WIRE 1200 544 1088 544
WIRE 1392 544 1392 448
WIRE 1392 544 1280 544
WIRE 624 592 624 544
WIRE 1088 592 1088 544
WIRE 624 688 624 656
WIRE 1088 688 1088 656
WIRE 256 816 256 800
WIRE 384 816 384 800
WIRE 528 816 528 800
WIRE 256 928 256 896
WIRE 384 928 384 896
WIRE 528 928 528 896
FLAG 256 928 0
FLAG 256 800 Vcc
FLAG 384 928 0
FLAG 384 800 Vee
FLAG 352 32 Vcc
FLAG 352 96 Vee
FLAG 0 288 0
FLAG 352 416 Vcc
FLAG 352 480 Vee
FLAG 640 160 0
FLAG 624 688 0
FLAG 896 176 vcc
FLAG 896 336 vee
FLAG 1104 160 0
FLAG 1088 688 0
FLAG 1360 176 vcc
FLAG 1360 336 vee
FLAG 864 176 ocm
FLAG 528 800 ocm
FLAG 528 928 0
FLAG 864 336 vcc
FLAG 1328 176 ocm
FLAG 1328 336 vcc
FLAG 1296 352 in2
FLAG 1296 448 fb2
FLAG 1296 64 fb1
FLAG 1296 160 in1
FLAG 960 64 0
FLAG 960 448 0
SYMBOL voltage 256 800 R0
WINDOW 123 0 0 Left 2
WINDOW 39 0 0 Left 2
SYMATTR InstName V1
SYMATTR Value 10
SYMBOL voltage 384 800 R0
WINDOW 123 0 0 Left 2
WINDOW 39 0 0 Left 2
SYMATTR InstName V2
SYMATTR Value -10
SYMBOL voltage -96 224 M0
WINDOW 123 24 124 Left 2
WINDOW 39 24 152 Left 2
SYMATTR Value2 AC 0
SYMATTR SpiceLine Rser=1k
SYMATTR InstName V3
SYMATTR Value 0
SYMBOL res 32 96 R0
SYMATTR InstName R1
SYMATTR Value 1Meg
SYMBOL res 32 336 R0
SYMATTR InstName R2
SYMATTR Value 1Meg
SYMBOL Opamps\\UniversalOpamp2 352 64 R0
SYMATTR InstName U1
SYMATTR Value2 Avol=1Meg GBW=40Meg Slew=27Meg
SYMATTR SpiceLine2 en=1.1n enk=30 in=1.7p ink=50 Rin=500Meg
SYMBOL Opamps\\UniversalOpamp2 352 448 R0
SYMATTR InstName U2
SYMATTR Value2 Avol=1Meg GBW=40Meg Slew=27Meg
SYMATTR SpiceLine2 en=1.1n enk=30 in=1.7p ink=50 Rin=500Meg
SYMBOL res 608 48 R90
WINDOW 0 0 56 VBottom 2
WINDOW 3 32 56 VTop 2
SYMATTR InstName R7
SYMATTR Value 1.05k
SYMBOL cap 624 80 R0
SYMATTR InstName C1
SYMATTR Value 240p
SYMBOL res 800 48 R90
WINDOW 0 0 56 VBottom 2
WINDOW 3 32 56 VTop 2
SYMATTR InstName R8
SYMATTR Value 698
SYMBOL res 848 -48 R90
WINDOW 0 0 56 VBottom 2
WINDOW 3 32 56 VTop 2
SYMATTR InstName R9
SYMATTR Value 1.05k
SYMBOL cap 912 48 R90
WINDOW 0 0 32 VBottom 2
WINDOW 3 32 32 VTop 2
SYMATTR InstName C2
SYMATTR Value 100p
SYMBOL res 592 432 R90
WINDOW 0 0 56 VBottom 2
WINDOW 3 32 56 VTop 2
SYMATTR InstName R10
SYMATTR Value 1.05k
SYMBOL cap 608 592 R0
SYMATTR InstName C5
SYMATTR Value 240p
SYMBOL res 752 432 R90
WINDOW 0 0 56 VBottom 2
WINDOW 3 32 56 VTop 2
SYMATTR InstName R11
SYMATTR Value 698
SYMBOL cap 912 432 R90
WINDOW 0 0 32 VBottom 2
WINDOW 3 32 32 VTop 2
SYMATTR InstName C6
SYMATTR Value 100p
SYMBOL res 832 528 R90
WINDOW 0 0 56 VBottom 2
WINDOW 3 32 56 VTop 2
SYMATTR InstName R12
SYMATTR Value 1.05k
SYMBOL res 1088 48 R90
WINDOW 0 0 56 VBottom 2
WINDOW 3 32 56 VTop 2
SYMATTR InstName R15
SYMATTR Value 357
SYMBOL cap 1088 80 R0
SYMATTR InstName C7
SYMATTR Value 1.5n
SYMBOL res 1264 48 R90
WINDOW 0 0 56 VBottom 2
WINDOW 3 32 56 VTop 2
SYMATTR InstName R16
SYMATTR Value 332
SYMBOL res 1312 -48 R90
WINDOW 0 0 56 VBottom 2
WINDOW 3 32 56 VTop 2
SYMATTR InstName R17
SYMATTR Value 220
SYMBOL cap 1376 48 R90
WINDOW 0 0 32 VBottom 2
WINDOW 3 32 32 VTop 2
SYMATTR InstName C8
SYMATTR Value 100p
SYMBOL cap 1072 592 R0
SYMATTR InstName C12
SYMATTR Value 1.5n
SYMBOL res 1216 432 R90
WINDOW 0 0 56 VBottom 2
WINDOW 3 32 56 VTop 2
SYMATTR InstName R18
SYMATTR Value 332
SYMBOL cap 1376 432 R90
WINDOW 0 0 32 VBottom 2
WINDOW 3 32 32 VTop 2
SYMATTR InstName C13
SYMATTR Value 100p
SYMBOL res 1296 528 R90
WINDOW 0 0 56 VBottom 2
WINDOW 3 32 56 VTop 2
SYMATTR InstName R19
SYMATTR Value 220
SYMBOL res 1072 432 R90
WINDOW 0 0 56 VBottom 2
WINDOW 3 32 56 VTop 2
SYMATTR InstName R20
SYMATTR Value 357
SYMBOL res 1584 48 R90
WINDOW 0 0 56 VBottom 2
WINDOW 3 32 56 VTop 2
SYMATTR InstName R13
SYMATTR Value 1k
SYMBOL res 1584 464 M270
WINDOW 0 32 56 VTop 2
WINDOW 3 0 56 VBottom 2
SYMATTR InstName R22
SYMATTR Value 1k
SYMBOL voltage 528 800 R0
WINDOW 123 0 0 Left 2
WINDOW 39 0 0 Left 2
SYMATTR InstName V4
SYMATTR Value 2.048
SYMBOL AutoGenerated\\OPA1632 880 256 M90
SYMATTR InstName U3
SYMBOL AutoGenerated\\OPA1632 1344 256 M90
SYMATTR InstName U4
SYMBOL voltage 1296 64 M0
WINDOW 123 24 124 Left 2
WINDOW 39 0 0 Left 2
SYMATTR Value2 AC 1
SYMATTR InstName V5
SYMATTR Value 0
SYMBOL voltage 1296 336 M0
WINDOW 123 24 124 Left 2
WINDOW 39 0 0 Left 2
SYMATTR Value2 AC 1
SYMATTR InstName V6
SYMATTR Value 0
TEXT -280 776 Left 2 !.ac dec 100 1 10G
TEXT -280 800 Left 2 !;.noise V(out+) V1 dec 100 1 100Meg
TEXT -280 824 Left 2 !;.tran 0 100m 0 1u
TEXT -272 912 Left 2 !.options plotwinsize 0
TEXT -320 184 Left 2 ;8 V diff, 4 V single ended.
TEXT 1320 -104 Left 2 ;+/-2.5 V, 5V max differential
