Version 4
SHEET 1 3264 1036
WIRE 1584 -128 1520 -128
WIRE 1712 -128 1648 -128
WIRE 336 -32 176 -32
WIRE 640 -32 528 -32
WIRE 816 -32 720 -32
WIRE 1104 -32 992 -32
WIRE 1280 -32 1184 -32
WIRE 1520 -32 1520 -128
WIRE 1568 -32 1520 -32
WIRE 1712 -32 1712 -128
WIRE 1712 -32 1648 -32
WIRE 176 48 176 -32
WIRE 208 48 176 48
WIRE 336 64 336 -32
WIRE 336 64 272 64
WIRE 416 64 336 64
WIRE 528 64 528 -32
WIRE 528 64 496 64
WIRE 592 64 528 64
WIRE 720 64 672 64
WIRE 736 64 720 64
WIRE 816 64 816 -32
WIRE 816 64 800 64
WIRE 880 64 816 64
WIRE 992 64 992 -32
WIRE 992 64 960 64
WIRE 1056 64 992 64
WIRE 1184 64 1136 64
WIRE 1200 64 1184 64
WIRE 1280 64 1280 -32
WIRE 1280 64 1264 64
WIRE 1376 64 1280 64
WIRE 1520 64 1520 -32
WIRE 1520 64 1456 64
WIRE 1568 64 1520 64
WIRE 1712 64 1712 -32
WIRE 1712 64 1664 64
WIRE 1776 64 1712 64
WIRE 1936 64 1856 64
WIRE -48 80 -96 80
WIRE 48 80 16 80
WIRE 208 80 48 80
WIRE 528 80 528 64
WIRE 992 80 992 64
WIRE 48 112 48 80
WIRE 1568 128 1568 64
WIRE 1568 128 1456 128
WIRE 528 160 528 144
WIRE 992 160 992 144
WIRE 720 176 720 64
WIRE 816 176 816 64
WIRE 1184 176 1184 64
WIRE 1280 176 1280 64
WIRE 1568 176 1568 128
WIRE 1632 176 1632 144
WIRE 1664 176 1664 64
WIRE -96 224 -96 80
WIRE 1456 224 1456 128
WIRE 48 272 48 192
WIRE 48 272 0 272
WIRE 0 288 0 272
WIRE 720 336 720 320
WIRE 816 336 816 320
WIRE 1184 336 1184 320
WIRE 1280 336 1280 320
WIRE 48 352 48 272
WIRE 336 352 176 352
WIRE 1632 352 1632 320
WIRE 1456 384 1456 288
WIRE 1568 384 1568 320
WIRE 1568 384 1456 384
WIRE 176 432 176 352
WIRE 208 432 176 432
WIRE 336 448 336 352
WIRE 336 448 272 448
WIRE 400 448 336 448
WIRE 512 448 480 448
WIRE 544 448 512 448
WIRE 720 448 720 336
WIRE 720 448 624 448
WIRE 736 448 720 448
WIRE 816 448 816 336
WIRE 816 448 800 448
WIRE 864 448 816 448
WIRE 976 448 944 448
WIRE 1008 448 976 448
WIRE 1184 448 1184 336
WIRE 1184 448 1088 448
WIRE 1200 448 1184 448
WIRE 1280 448 1280 336
WIRE 1280 448 1264 448
WIRE 1376 448 1280 448
WIRE 1520 448 1456 448
WIRE 1568 448 1568 384
WIRE 1568 448 1520 448
WIRE 1664 448 1664 320
WIRE 1712 448 1664 448
WIRE 1776 448 1712 448
WIRE 1936 448 1856 448
WIRE -48 464 -96 464
WIRE 48 464 48 432
WIRE 48 464 16 464
WIRE 208 464 48 464
WIRE 512 544 512 448
WIRE 624 544 512 544
WIRE 816 544 816 448
WIRE 816 544 704 544
WIRE 976 544 976 448
WIRE 1088 544 976 544
WIRE 1280 544 1280 448
WIRE 1280 544 1168 544
WIRE 1520 544 1520 448
WIRE 1568 544 1520 544
WIRE 1712 544 1712 448
WIRE 1712 544 1648 544
WIRE 512 592 512 544
WIRE 976 592 976 544
WIRE 1520 640 1520 544
WIRE 1584 640 1520 640
WIRE 1712 640 1712 544
WIRE 1712 640 1648 640
WIRE 512 688 512 656
WIRE 976 688 976 656
WIRE 320 832 320 816
WIRE 432 832 432 816
WIRE 560 832 560 816
WIRE 704 832 704 816
WIRE 320 928 320 912
WIRE 432 928 432 912
WIRE 560 928 560 912
WIRE 704 928 704 912
WIRE 320 944 320 928
WIRE 432 944 432 928
FLAG 1936 64 outP
FLAG 432 816 Vcc
FLAG 240 32 Vcc
FLAG 240 96 Vee
FLAG 240 416 Vcc
FLAG 240 480 Vee
FLAG 1936 448 outN
FLAG 1632 352 vee
FLAG 560 816 ocm
FLAG 784 176 vcc
FLAG 784 336 vee
FLAG 1248 176 vcc
FLAG 1248 336 vee
FLAG 752 336 vcc
FLAG 1216 336 vcc
FLAG 704 816 AVDD3
FLAG 0 288 bias
FLAG 432 944 vee
FLAG 560 928 vee
FLAG 704 928 vee
FLAG 512 688 vee
FLAG 976 688 vee
FLAG 528 160 vee
FLAG 992 160 vee
FLAG 432 928 0
FLAG 1632 144 AVDD3
FLAG 1600 176 ocm
FLAG -96 464 0
FLAG -96 304 0
FLAG 320 944 vee
FLAG 320 928 0
FLAG 320 816 bias
SYMBOL voltage 432 816 R0
WINDOW 123 0 0 Left 2
WINDOW 39 0 0 Left 2
SYMATTR InstName V3
SYMATTR Value 12
SYMBOL voltage -96 208 M0
WINDOW 123 24 124 Left 2
WINDOW 39 24 152 Left 2
SYMATTR Value2 AC 2.55
SYMATTR SpiceLine Rser=1k
SYMATTR InstName V1
SYMATTR Value SINE(0 6 1k)
SYMBOL res 32 96 R0
SYMATTR InstName R1
SYMATTR Value 1Meg
SYMBOL res 32 336 R0
SYMATTR InstName R2
SYMATTR Value 1Meg
SYMBOL Opamps\\UniversalOpamp2 240 64 R0
SYMATTR InstName U1
SYMATTR Value2 Avol=1Meg GBW=40Meg Slew=27Meg
SYMATTR SpiceLine2 en=1.1n enk=30 in=1.7p ink=50 Rin=500Meg
SYMBOL Opamps\\UniversalOpamp2 240 448 R0
SYMATTR InstName U2
SYMATTR Value2 Avol=1Meg GBW=40Meg Slew=27Meg
SYMATTR SpiceLine2 en=1.1n enk=30 in=1.7p ink=50 Rin=500Meg
SYMBOL res 512 48 R90
WINDOW 0 0 56 VBottom 2
WINDOW 3 32 56 VTop 2
SYMATTR InstName R7
SYMATTR Value 1.05k
SYMBOL cap 512 80 R0
SYMATTR InstName C1
SYMATTR Value 240p
SYMBOL res 688 48 R90
WINDOW 0 0 56 VBottom 2
WINDOW 3 32 56 VTop 2
SYMATTR InstName R8
SYMATTR Value 698
SYMBOL res 736 -48 R90
WINDOW 0 0 56 VBottom 2
WINDOW 3 32 56 VTop 2
SYMATTR InstName R9
SYMATTR Value 1.05k
SYMBOL cap 800 48 R90
WINDOW 0 0 32 VBottom 2
WINDOW 3 32 32 VTop 2
SYMATTR InstName C2
SYMATTR Value 100p
SYMBOL res 496 432 R90
WINDOW 0 0 56 VBottom 2
WINDOW 3 32 56 VTop 2
SYMATTR InstName R10
SYMATTR Value 1.05k
SYMBOL cap 496 592 R0
SYMATTR InstName C3
SYMATTR Value 240p
SYMBOL res 640 432 R90
WINDOW 0 0 56 VBottom 2
WINDOW 3 32 56 VTop 2
SYMATTR InstName R11
SYMATTR Value 698
SYMBOL cap 800 432 R90
WINDOW 0 0 32 VBottom 2
WINDOW 3 32 32 VTop 2
SYMATTR InstName C4
SYMATTR Value 100p
SYMBOL res 720 528 R90
WINDOW 0 0 56 VBottom 2
WINDOW 3 32 56 VTop 2
SYMATTR InstName R12
SYMATTR Value 1.05k
SYMBOL res 976 48 R90
WINDOW 0 0 56 VBottom 2
WINDOW 3 32 56 VTop 2
SYMATTR InstName R13
SYMATTR Value 367
SYMBOL cap 976 80 R0
SYMATTR InstName C5
SYMATTR Value 1.5n
SYMBOL res 1152 48 R90
WINDOW 0 0 56 VBottom 2
WINDOW 3 32 56 VTop 2
SYMATTR InstName R14
SYMATTR Value 332
SYMBOL res 1200 -48 R90
WINDOW 0 0 56 VBottom 2
WINDOW 3 32 56 VTop 2
SYMATTR InstName R15
SYMATTR Value 220
SYMBOL cap 1264 48 R90
WINDOW 0 0 32 VBottom 2
WINDOW 3 32 32 VTop 2
SYMATTR InstName C6
SYMATTR Value 100p
SYMBOL cap 960 592 R0
SYMATTR InstName C7
SYMATTR Value 1.5n
SYMBOL res 1104 432 R90
WINDOW 0 0 56 VBottom 2
WINDOW 3 32 56 VTop 2
SYMATTR InstName R16
SYMATTR Value 332
SYMBOL cap 1264 432 R90
WINDOW 0 0 32 VBottom 2
WINDOW 3 32 32 VTop 2
SYMATTR InstName C8
SYMATTR Value 100p
SYMBOL res 1184 528 R90
WINDOW 0 0 56 VBottom 2
WINDOW 3 32 56 VTop 2
SYMATTR InstName R17
SYMATTR Value 220
SYMBOL res 960 432 R90
WINDOW 0 0 56 VBottom 2
WINDOW 3 32 56 VTop 2
SYMATTR InstName R18
SYMATTR Value 367
SYMBOL AutoGenerated\\THS4520 1616 240 M90
SYMATTR InstName U3
SYMBOL res 1472 48 R90
WINDOW 0 0 56 VBottom 2
WINDOW 3 32 56 VTop 2
SYMATTR InstName R19
SYMATTR Value 1k
SYMBOL res 1664 -48 R90
WINDOW 0 0 56 VBottom 2
WINDOW 3 32 56 VTop 2
SYMATTR InstName R20
SYMATTR Value 655
SYMBOL res 1872 48 R90
WINDOW 0 0 56 VBottom 2
WINDOW 3 32 56 VTop 2
SYMATTR InstName R21
SYMATTR Value 18
SYMBOL cap 1440 224 R0
SYMATTR InstName C9
SYMATTR Value 100p
SYMBOL cap 1648 -144 R90
WINDOW 0 0 32 VBottom 2
WINDOW 3 32 32 VTop 2
SYMATTR InstName C10
SYMATTR Value 120p
SYMBOL res 1472 464 M270
WINDOW 0 32 56 VTop 2
WINDOW 3 0 56 VBottom 2
SYMATTR InstName R22
SYMATTR Value 1k
SYMBOL res 1664 560 M270
WINDOW 0 32 56 VTop 2
WINDOW 3 0 56 VBottom 2
SYMATTR InstName R23
SYMATTR Value 655
SYMBOL res 1872 464 M270
WINDOW 0 32 56 VTop 2
WINDOW 3 0 56 VBottom 2
SYMATTR InstName R24
SYMATTR Value 18
SYMBOL cap 1648 656 M270
WINDOW 0 32 32 VTop 2
WINDOW 3 0 32 VBottom 2
SYMATTR InstName C11
SYMATTR Value 120p
SYMBOL voltage 560 816 R0
WINDOW 123 0 0 Left 2
WINDOW 39 0 0 Left 2
SYMATTR InstName V4
SYMATTR Value 2.048
SYMBOL AutoGenerated\\OPA1632 768 256 M90
SYMATTR InstName U4
SYMBOL AutoGenerated\\OPA1632 1232 256 M90
SYMATTR InstName U5
SYMBOL voltage 704 816 R0
WINDOW 123 0 0 Left 2
WINDOW 39 0 0 Left 2
SYMATTR InstName V5
SYMATTR Value 5
SYMBOL cap 16 448 R90
WINDOW 0 0 32 VBottom 2
WINDOW 3 32 32 VTop 2
SYMATTR InstName C14
SYMATTR Value 2.2µ
SYMBOL cap 16 64 R90
WINDOW 0 0 32 VBottom 2
WINDOW 3 32 32 VTop 2
SYMATTR InstName C12
SYMATTR Value 2.2µ
SYMBOL voltage 320 816 R0
WINDOW 123 0 0 Left 2
WINDOW 39 0 0 Left 2
SYMATTR InstName V2
SYMATTR Value 6
TEXT -280 776 Left 2 !;.ac dec 100 1 300Meg
TEXT -280 800 Left 2 !;noise V(outP, outN) V1 dec 100 1 1Meg
TEXT -280 824 Left 2 !.tran 0 4m 0 1u
TEXT -272 912 Left 2 !.options plotwinsize 0
TEXT -320 184 Left 2 ;4 volt maximum
TEXT 1736 256 Left 2 ;The THS 4520 represents \nthe ADC's built in diff amp
TEXT -48 -8 Left 2 ;0.08 Hz
